BEGIN NEW DATA CASE
CABLE CONSTANTS
CABLE PARAMETERS
BRANCH  IN_001OUT001IN_002OUT002IN_003OUT003
    2   -1    3         1    1            6    0    3
    3    3    3
       0.0   0.021150.030650000.031700000.032000000.032150000.03460000
38741.e-111.03464092       1.0      32.310402.e-102.60115697       1.0      32.3
28264.e-111.00002199       1.0       2.3
C Additional conductance and capacitance card
53067.e-1741335.e-140.1258603619077.e-1143428.e-1717422.e-13
       0.0   0.021150.030650000.031700000.032000000.032150000.03460000
38741.e-111.03464092       1.0      32.310402.e-102.60115697       1.0      32.3
28264.e-111.00002199       1.0       2.3
C Additional conductance and capacitance card
53067.e-1741335.e-140.1258603619077.e-1143428.e-1717422.e-13
       0.0   0.021150.030650000.031700000.032000000.032150000.03460000
38741.e-111.03464092       1.0      32.310402.e-102.60115697       1.0      32.3
28264.e-111.00002199       1.0       2.3
C Additional conductance and capacitance card
53067.e-1741335.e-140.1258603619077.e-1143428.e-1717422.e-13
-0.9595854       0.0-1.0202072-0.0349999-1.02020720.03499999
          100.0           50.0         1000.0     2
BLANK CARD ENDING FREQUENCY CARDS
$PUNCH
BLANK CARD ENDING CABLE CONSTANTS
BEGIN NEW DATA CASE
BLANK CARD
