BEGIN NEW DATA CASE
CABLE CONSTANTS
CABLE PARAMETERS
BRANCH  IN_001OUT001IN_002OUT002
    2   -1    2         1    1            4    0    3
    3    3
       0.00.017553460.042153460.045153460.048253460.053253460.05725346
23831.e-111.023222291.729570242.65531545   214.e-80.99998300       1.02.38008844
18945.e-1139.65024271.116922372.80000000
C Additional conductance and capacitance card
14840.e-1716862.e-1321107.e-1819941.e-1386754.e-1721507.e-13
       0.00.017553460.042153460.045153460.048253460.053253460.05725346
23831.e-111.023222291.729570242.65531545   214.e-80.99998300       1.02.38008844
18945.e-1139.65024271.116922372.80000000
C Additional conductance and capacitance card
14840.e-1716862.e-1321107.e-1819941.e-1386754.e-1721507.e-13
      -1.0      -0.5      -1.0       0.5
          100.0           50.0         1000.0     2
BLANK CARD ENDING FREQUENCY CARDS
$PUNCH
BLANK CARD ENDING CABLE CONSTANTS
BEGIN NEW DATA CASE
BLANK CARD
